data_image0
_chemical_formula_structural       Mg8Si4O16
_chemical_formula_sum              "Mg8 Si4 O16"
_cell_length_a       4.7305
_cell_length_b       5.92831
_cell_length_c       10.1141
_cell_angle_alpha    90
_cell_angle_beta     90
_cell_angle_gamma    90

_space_group_name_H-M_alt    "P 1"
_space_group_IT_number       1

loop_
  _space_group_symop_operation_xyz
  'x, y, z'

loop_
  _atom_site_type_symbol
  _atom_site_label
  _atom_site_symmetry_multiplicity
  _atom_site_fract_x
  _atom_site_fract_y
  _atom_site_fract_z
  _atom_site_occupancy
  Mg  Mg1       1.0  0.00000  0.00000  0.00000  1.0000
  Mg  Mg2       1.0  0.50000  0.00000  0.50000  1.0000
  Mg  Mg3       1.0  0.00000  0.50000  0.00000  1.0000
  Mg  Mg4       1.0  0.50000  0.50000  0.50000  1.0000
  Mg  Mg5       1.0  0.00809  0.75000  0.27648  1.0000
  Mg  Mg6       1.0  0.50809  0.25000  0.22352  1.0000
  Mg  Mg7       1.0  0.99191  0.25000  0.72352  1.0000
  Mg  Mg8       1.0  0.49191  0.75000  0.77648  1.0000
  Si  Si1       1.0  0.92742  0.75000  0.59417  1.0000
  Si  Si2       1.0  0.42742  0.25000  0.90583  1.0000
  Si  Si3       1.0  0.07258  0.25000  0.40583  1.0000
  Si  Si4       1.0  0.57258  0.75000  0.09417  1.0000
  O   O1        1.0  0.27787  0.46767  0.83725  1.0000
  O   O2        1.0  0.77787  0.53233  0.66275  1.0000
  O   O3        1.0  0.72213  0.96767  0.16275  1.0000
  O   O4        1.0  0.22213  0.03233  0.33725  1.0000
  O   O5        1.0  0.72213  0.53233  0.16275  1.0000
  O   O6        1.0  0.22213  0.46767  0.33725  1.0000
  O   O7        1.0  0.27787  0.03233  0.83725  1.0000
  O   O8        1.0  0.77787  0.96767  0.66275  1.0000
  O   O9        1.0  0.77915  0.75000  0.44704  1.0000
  O   O10       1.0  0.27915  0.25000  0.05296  1.0000
  O   O11       1.0  0.22085  0.25000  0.55296  1.0000
  O   O12       1.0  0.72085  0.75000  0.94704  1.0000
  O   O13       1.0  0.26682  0.75000  0.59173  1.0000
  O   O14       1.0  0.76682  0.25000  0.90827  1.0000
  O   O15       1.0  0.73318  0.25000  0.40827  1.0000
  O   O16       1.0  0.23318  0.75000  0.09173  1.0000
